* NGSPICE file created from user_proj_sarlogic.ext - technology: gf180mcuD

.subckt user_proj_sarlogic CLK COMP_CLK COMP_OUT DIGITAL_OUT[0] DIGITAL_OUT[1] DIGITAL_OUT[2]
+ DIGITAL_OUT[3] DIGITAL_OUT[4] DIGITAL_OUT[5] EOC XRST SC SDAC[0] SDAC[1] SDAC[2]
+ SDAC[3] SDAC[4] SDAC[5] SDAC[6] vccd1 vssd1
X0 a_25660_24328# a_25572_24372# vssd1 vssd1 nfet_06v0 ad=0.3608p pd=2.52u as=0.3608p ps=2.52u w=0.82u l=1u
X1 vccd1 a_27116_20759# a_27028_20856# vccd1 pfet_06v0 ad=0.5368p pd=3.32u as=0.5368p ps=3.32u w=1.22u l=1u
X2 SDAC[5] a_1772_20408# vssd1 vssd1 nfet_06v0 ad=0.2132p pd=1.34u as=0.3608p ps=2.52u w=0.82u l=0.6u
X3 a_12424_13484# a_11460_13880# a_12220_13484# vssd1 nfet_06v0 ad=93.59999f pd=0.88u as=93.59999f ps=0.88u w=0.36u l=0.6u
X4 vccd1 a_22748_7080# a_22660_7124# vccd1 pfet_06v0 ad=0.5368p pd=3.32u as=0.5368p ps=3.32u w=1.22u l=1u
X5 vssd1 a_8153_25200# a_8048_25244# vssd1 nfet_06v0 ad=0.1224p pd=1.04u as=94.5f ps=0.885u w=0.36u l=0.6u
X6 vccd1 a_25772_17623# a_25684_17720# vccd1 pfet_06v0 ad=0.5368p pd=3.32u as=0.5368p ps=3.32u w=1.22u l=1u
X7 a_6999_13188# a_6543_12612# vccd1 vccd1 pfet_06v0 ad=61.199993f pd=0.7u as=0.1116p ps=0.98u w=0.36u l=0.5u
X8 a_19612_3944# a_19524_3988# vssd1 vssd1 nfet_06v0 ad=0.3608p pd=2.52u as=0.3608p ps=2.52u w=0.82u l=1u
X9 a_18853_22826# a_18733_23269# vccd1 vccd1 pfet_06v0 ad=61.199993f pd=0.7u as=0.379p ps=2.37u w=0.36u l=0.5u
X10 vccd1 a_5685_16533# a_6095_16532# vccd1 pfet_06v0 ad=0.1116p pd=0.98u as=0.3852p ps=2.86u w=0.36u l=0.5u
X11 a_15244_5079# a_15156_5176# vssd1 vssd1 nfet_06v0 ad=0.3608p pd=2.52u as=0.3608p ps=2.52u w=0.82u l=1u
X12 a_1692_26427# a_8153_25200# vccd1 vccd1 pfet_06v0 ad=0.5346p pd=3.31u as=0.5346p ps=3.31u w=1.215u l=0.5u
X13 a_4264_17020# a_2052_17016# a_3324_16576# vccd1 pfet_06v0 ad=0.25375p pd=1.51u as=0.2424p ps=1.465u w=0.505u l=0.5u
X14 a_24640_25940# a_24004_22804# vssd1 vssd1 nfet_06v0 ad=0.2132p pd=1.34u as=0.3608p ps=2.52u w=0.82u l=0.6u
X15 a_6527_24047# a_5627_23544# vccd1 vccd1 pfet_06v0 ad=0.1313p pd=1.025u as=0.29465p ps=1.74u w=0.505u l=0.5u
D0 vssd1 a_1804_21723# diode_nd2ps_06v0 pj=1.86u area=0.2052p
X16 a_18268_11784# a_18180_11828# vssd1 vssd1 nfet_06v0 ad=0.3608p pd=2.52u as=0.3608p ps=2.52u w=0.82u l=1u
X17 vssd1 a_5084_25560# a_13216_25940# vssd1 nfet_06v0 ad=0.2132p pd=1.34u as=0.2132p ps=1.34u w=0.82u l=0.6u
X18 vssd1 a_20196_25940# a_21392_25940# vssd1 nfet_06v0 ad=0.2132p pd=1.34u as=0.2132p ps=1.34u w=0.82u l=0.6u
X19 vccd1 a_19544_24416# a_19352_24460# vccd1 pfet_06v0 ad=0.2222p pd=1.89u as=0.2424p ps=1.465u w=0.505u l=0.5u
X20 vccd1 a_27116_14487# a_27028_14584# vccd1 pfet_06v0 ad=0.5368p pd=3.32u as=0.5368p ps=3.32u w=1.22u l=1u
X21 a_10316_6647# a_10228_6744# vssd1 vssd1 nfet_06v0 ad=0.3608p pd=2.52u as=0.3608p ps=2.52u w=0.82u l=1u
X22 a_2016_19739# a_1604_20152# vssd1 vssd1 nfet_06v0 ad=0.1782p pd=1.69u as=0.1053p ps=0.925u w=0.405u l=0.6u
X23 a_25660_18056# a_25572_18100# vssd1 vssd1 nfet_06v0 ad=0.3608p pd=2.52u as=0.3608p ps=2.52u w=0.82u l=1u
X24 a_1692_18528# a_6440_18056# vssd1 vssd1 nfet_06v0 ad=0.1118p pd=0.95u as=0.1118p ps=0.95u w=0.43u l=0.6u
X25 a_19477_18100# a_19357_18632# a_18733_18565# vccd1 pfet_06v0 ad=61.199993f pd=0.7u as=0.3852p ps=2.86u w=0.36u l=0.5u
X26 a_1892_14180# a_1772_14136# vssd1 vssd1 nfet_06v0 ad=0.2132p pd=1.34u as=0.3608p ps=2.52u w=0.82u l=0.6u
X27 vccd1 a_27116_11351# a_27028_11448# vccd1 pfet_06v0 ad=0.5368p pd=3.32u as=0.5368p ps=3.32u w=1.22u l=1u
X28 a_25660_14920# a_25572_14964# vssd1 vssd1 nfet_06v0 ad=0.3608p pd=2.52u as=0.3608p ps=2.52u w=0.82u l=1u
X29 vssd1 a_6266_14756# a_6742_14180# vssd1 nfet_06v0 ad=93.59999f pd=0.88u as=43.199997f ps=0.6u w=0.36u l=0.6u
X30 vccd1 a_2588_5512# a_2500_5556# vccd1 pfet_06v0 ad=0.5368p pd=3.32u as=0.5368p ps=3.32u w=1.22u l=1u
X31 a_8583_20856# a_8736_25940# a_7452_21280# vccd1 pfet_06v0 ad=0.3159p pd=1.735u as=0.3159p ps=1.735u w=1.215u l=0.5u
X32 vccd1 a_23084_9783# a_22996_9880# vccd1 pfet_06v0 ad=0.5368p pd=3.32u as=0.5368p ps=3.32u w=1.22u l=1u
X33 a_6118_10836# a_5642_10260# vssd1 vssd1 nfet_06v0 ad=43.199997f pd=0.6u as=93.59999f ps=0.88u w=0.36u l=0.6u
X34 a_1892_11044# a_1772_11000# vssd1 vssd1 nfet_06v0 ad=0.2132p pd=1.34u as=0.3608p ps=2.52u w=0.82u l=0.6u
X35 a_22448_22424# a_21684_22020# a_22244_22424# vccd1 pfet_06v0 ad=0.4758p pd=2u as=0.3172p ps=1.74u w=1.22u l=0.5u
X36 a_3816_15452# a_2016_15035# a_2876_15008# vssd1 nfet_06v0 ad=0.2007p pd=1.475u as=0.2007p ps=1.475u w=0.36u l=0.6u
X37 vccd1 a_8300_5079# a_8212_5176# vccd1 pfet_06v0 ad=0.5368p pd=3.32u as=0.5368p ps=3.32u w=1.22u l=1u
X38 a_28012_6647# a_27924_6744# vssd1 vssd1 nfet_06v0 ad=0.3608p pd=2.52u as=0.3608p ps=2.52u w=0.82u l=1u
X39 vccd1 a_15692_8215# a_15604_8312# vccd1 pfet_06v0 ad=0.5368p pd=3.32u as=0.5368p ps=3.32u w=1.22u l=1u
D1 a_2444_24328# vccd1 diode_pd2nw_06v0 pj=1.86u area=0.2052p
X40 vssd1 a_1772_12568# SDAC[3] vssd1 nfet_06v0 ad=0.2132p pd=1.34u as=0.2132p ps=1.34u w=0.82u l=0.6u
X41 vccd1 a_23084_6647# a_22996_6744# vccd1 pfet_06v0 ad=0.5368p pd=3.32u as=0.5368p ps=3.32u w=1.22u l=1u
X42 a_12560_16976# a_11548_13824# vssd1 vssd1 nfet_06v0 ad=0.1782p pd=1.69u as=0.1053p ps=0.925u w=0.405u l=0.6u
X43 a_16588_14487# a_16500_14584# vssd1 vssd1 nfet_06v0 ad=0.3608p pd=2.52u as=0.3608p ps=2.52u w=0.82u l=1u
X44 vccd1 a_13672_13884# a_14089_13744# vccd1 pfet_06v0 ad=0.44p pd=2.88u as=0.26p ps=1.52u w=1u l=0.5u
X45 a_10192_8692# a_7988_3608# vssd1 vssd1 nfet_06v0 ad=0.1053p pd=0.925u as=0.1782p ps=1.69u w=0.405u l=0.6u
X46 vccd1 a_10452_18840# a_8736_19363# vccd1 pfet_06v0 ad=0.4056p pd=1.805u as=0.2197p ps=1.365u w=0.845u l=0.5u
X47 a_24540_16488# a_24452_16532# vssd1 vssd1 nfet_06v0 ad=0.3608p pd=2.52u as=0.3608p ps=2.52u w=0.82u l=1u
X48 vccd1 a_17585_20856# a_9263_20408# vccd1 pfet_06v0 ad=0.4972p pd=3.14u as=0.2938p ps=1.65u w=1.13u l=0.5u
X49 a_1692_10688# a_6328_17342# vssd1 vssd1 nfet_06v0 ad=0.1118p pd=0.95u as=0.1118p ps=0.95u w=0.43u l=0.6u
X50 DIGITAL_OUT[2] a_17024_25940# vccd1 vccd1 pfet_06v0 ad=0.3782p pd=1.84u as=0.3782p ps=1.84u w=1.22u l=0.5u
X51 a_7190_18884# a_6358_19378# a_7042_19460# vccd1 pfet_06v0 ad=0.3852p pd=2.86u as=61.199993f ps=0.7u w=0.36u l=0.5u
X52 vccd1 a_24204_18056# a_24116_18100# vccd1 pfet_06v0 ad=0.5368p pd=3.32u as=0.5368p ps=3.32u w=1.22u l=1u
X53 a_19948_17623# a_19860_17720# vssd1 vssd1 nfet_06v0 ad=0.3608p pd=2.52u as=0.3608p ps=2.52u w=0.82u l=1u
X54 vccd1 a_4041_24812# a_3981_24460# vccd1 pfet_06v0 ad=0.3975p pd=2.185u as=0.101p ps=0.905u w=0.505u l=0.5u
X55 vccd1 a_16520_20128# a_6388_6390# vccd1 pfet_06v0 ad=0.4015p pd=1.92u as=0.5368p ps=3.32u w=1.22u l=0.5u
X56 a_8968_11132# a_8040_11503# a_8800_11132# vssd1 nfet_06v0 ad=43.199997f pd=0.6u as=43.199997f ps=0.6u w=0.36u l=0.6u
X57 vssd1 a_11961_12656# a_11856_12700# vssd1 nfet_06v0 ad=0.1224p pd=1.04u as=94.5f ps=0.885u w=0.36u l=0.6u
X58 a_12668_5512# a_12580_5556# vssd1 vssd1 nfet_06v0 ad=0.3608p pd=2.52u as=0.3608p ps=2.52u w=0.82u l=1u
X59 a_22748_19624# a_22660_19668# vssd1 vssd1 nfet_06v0 ad=0.3608p pd=2.52u as=0.3608p ps=2.52u w=0.82u l=1u
X60 vssd1 a_7302_10836# a_7778_10835# vssd1 nfet_06v0 ad=0.282625p pd=1.87u as=43.8f ps=0.605u w=0.365u l=0.6u
X61 a_14860_20807# a_14552_20856# vssd1 vssd1 nfet_06v0 ad=0.2007p pd=1.475u as=0.2016p ps=1.48u w=0.36u l=0.6u
X62 a_24316_21192# a_24228_21236# vssd1 vssd1 nfet_06v0 ad=0.3608p pd=2.52u as=0.3608p ps=2.52u w=0.82u l=1u
X63 vccd1 a_25660_8648# a_25572_8692# vccd1 pfet_06v0 ad=0.5368p pd=3.32u as=0.5368p ps=3.32u w=1.22u l=1u
D2 a_2140_17302# vccd1 diode_pd2nw_06v0 pj=1.86u area=0.2052p
X64 vccd1 a_26332_3511# a_26244_3608# vccd1 pfet_06v0 ad=0.5368p pd=3.32u as=0.5368p ps=3.32u w=1.22u l=1u
X65 DIGITAL_OUT[1] a_13216_25940# vssd1 vssd1 nfet_06v0 ad=0.2132p pd=1.34u as=0.2132p ps=1.34u w=0.82u l=0.6u
X66 vccd1 a_25660_5512# a_25572_5556# vccd1 pfet_06v0 ad=0.5368p pd=3.32u as=0.5368p ps=3.32u w=1.22u l=1u
X67 a_4348_7909# a_5577_9040# vccd1 vccd1 pfet_06v0 ad=0.5346p pd=3.31u as=0.5346p ps=3.31u w=1.215u l=0.5u
X68 vccd1 a_26556_10216# a_26468_10260# vccd1 pfet_06v0 ad=0.5368p pd=3.32u as=0.5368p ps=3.32u w=1.22u l=1u
X69 a_18604_11351# a_18516_11448# vssd1 vssd1 nfet_06v0 ad=0.3608p pd=2.52u as=0.3608p ps=2.52u w=0.82u l=1u
X70 a_5084_25560# a_4628_25248# vssd1 vssd1 nfet_06v0 ad=0.3608p pd=2.52u as=0.2344p ps=1.56u w=0.82u l=0.6u
X71 a_6571_17108# a_6095_16532# vssd1 vssd1 nfet_06v0 ad=43.199997f pd=0.6u as=93.59999f ps=0.88u w=0.36u l=0.6u
X72 a_17820_8648# a_17732_8692# vssd1 vssd1 nfet_06v0 ad=0.3608p pd=2.52u as=0.3608p ps=2.52u w=0.82u l=1u
X73 a_7302_10836# a_6470_10260# a_7154_10260# vccd1 pfet_06v0 ad=0.3852p pd=2.86u as=61.199993f ps=0.7u w=0.36u l=0.5u
X74 a_7706_22424# a_5836_22760# a_1916_22021# vccd1 pfet_06v0 ad=0.4087p pd=1.89u as=0.5368p ps=3.32u w=1.22u l=0.5u
X75 a_13452_9783# a_13364_9880# vssd1 vssd1 nfet_06v0 ad=0.3608p pd=2.52u as=0.3608p ps=2.52u w=0.82u l=1u
X76 a_5836_22760# a_14649_21584# vssd1 vssd1 nfet_06v0 ad=0.2119p pd=1.335u as=0.3586p ps=2.51u w=0.815u l=0.6u
X77 vccd1 a_18716_16488# a_18628_16532# vccd1 pfet_06v0 ad=0.5368p pd=3.32u as=0.5368p ps=3.32u w=1.22u l=1u
X78 a_14068_23992# a_13508_23588# a_13940_23588# vssd1 nfet_06v0 ad=0.2132p pd=1.34u as=0.1968p ps=1.3u w=0.82u l=0.6u
X79 a_3036_8215# a_2948_8312# vssd1 vssd1 nfet_06v0 ad=0.3608p pd=2.52u as=0.3608p ps=2.52u w=0.82u l=1u
X80 SDAC[2] a_1772_9432# vssd1 vssd1 nfet_06v0 ad=0.2132p pd=1.34u as=0.2132p ps=1.34u w=0.82u l=0.6u
X81 vccd1 a_27564_23895# a_27476_23992# vccd1 pfet_06v0 ad=0.5368p pd=3.32u as=0.5368p ps=3.32u w=1.22u l=1u
X82 vssd1 a_14392_14181# a_8335_13352# vssd1 nfet_06v0 ad=0.153p pd=1.195u as=0.2178p ps=1.87u w=0.495u l=0.6u
X83 vccd1 a_14460_7080# a_14372_7124# vccd1 pfet_06v0 ad=0.5368p pd=3.32u as=0.5368p ps=3.32u w=1.22u l=1u
X84 vssd1 a_12579_24765# a_8492_24328# vssd1 nfet_06v0 ad=0.282625p pd=1.87u as=0.3608p ps=2.52u w=0.82u l=0.6u
X85 a_11544_12700# a_9332_12695# a_10604_12967# vccd1 pfet_06v0 ad=0.25375p pd=1.51u as=0.2424p ps=1.465u w=0.505u l=0.5u
X86 vccd1 a_27564_20759# a_27476_20856# vccd1 pfet_06v0 ad=0.5368p pd=3.32u as=0.5368p ps=3.32u w=1.22u l=1u
X87 a_22636_20759# a_22548_20856# vssd1 vssd1 nfet_06v0 ad=0.3608p pd=2.52u as=0.3608p ps=2.52u w=0.82u l=1u
X88 a_11548_3511# a_11460_3608# vssd1 vssd1 nfet_06v0 ad=0.3608p pd=2.52u as=0.3608p ps=2.52u w=0.82u l=1u
X89 vccd1 a_8519_13836# a_8721_14920# vccd1 pfet_06v0 ad=0.5368p pd=3.32u as=0.5368p ps=3.32u w=1.22u l=0.5u
X90 vccd1 a_1772_9432# SDAC[2] vccd1 pfet_06v0 ad=0.3782p pd=1.84u as=0.3782p ps=1.84u w=1.22u l=0.5u
X91 a_11799_16488# a_12560_16976# a_12351_16620# vssd1 nfet_06v0 ad=0.2007p pd=1.475u as=94.5f ps=0.885u w=0.36u l=0.6u
X92 DIGITAL_OUT[3] a_18256_25560# vssd1 vssd1 nfet_06v0 ad=0.2132p pd=1.34u as=0.2132p ps=1.34u w=0.82u l=0.6u
X93 a_10901_24142# a_10781_23544# vccd1 vccd1 pfet_06v0 ad=61.199993f pd=0.7u as=0.379p ps=2.37u w=0.36u l=0.5u
X94 a_22188_12919# a_22100_13016# vssd1 vssd1 nfet_06v0 ad=0.3608p pd=2.52u as=0.3608p ps=2.52u w=0.82u l=1u
X95 vccd1 a_1772_6296# SDAC[1] vccd1 pfet_06v0 ad=0.3782p pd=1.84u as=0.3782p ps=1.84u w=1.22u l=0.5u
X96 vccd1 a_13533_24904# a_13653_24372# vccd1 pfet_06v0 ad=0.1116p pd=0.98u as=61.199993f ps=0.7u w=0.36u l=0.5u
X97 DIGITAL_OUT[0] a_9408_25940# vccd1 vccd1 pfet_06v0 ad=0.3782p pd=1.84u as=0.3782p ps=1.84u w=1.22u l=0.5u
X98 EOC a_25648_25560# vccd1 vccd1 pfet_06v0 ad=0.3782p pd=1.84u as=0.3782p ps=1.84u w=1.22u l=0.5u
X99 a_19724_5079# a_19636_5176# vssd1 vssd1 nfet_06v0 ad=0.3608p pd=2.52u as=0.3608p ps=2.52u w=0.82u l=1u
X100 vccd1 a_1772_3160# SDAC[0] vccd1 pfet_06v0 ad=0.3782p pd=1.84u as=0.3782p ps=1.84u w=1.22u l=0.5u
X101 a_5276_5512# a_5188_5556# vssd1 vssd1 nfet_06v0 ad=0.3608p pd=2.52u as=0.3608p ps=2.52u w=0.82u l=1u
X102 vccd1 a_17859_24373# a_19760_23992# vccd1 pfet_06v0 ad=0.4392p pd=1.94u as=0.4758p ps=2u w=1.22u l=0.5u
X103 vssd1 a_5836_22760# a_4631_20408# vssd1 nfet_06v0 ad=0.2112p pd=1.84u as=0.2112p ps=1.84u w=0.48u l=0.6u
X104 vssd1 a_3564_25112# a_1772_25112# vssd1 nfet_06v0 ad=0.2132p pd=1.34u as=0.2132p ps=1.34u w=0.82u l=0.6u
X105 vssd1 a_20196_25940# a_21392_25940# vssd1 nfet_06v0 ad=0.2132p pd=1.34u as=0.2132p ps=1.34u w=0.82u l=0.6u
X106 a_21852_3944# a_21764_3988# vssd1 vssd1 nfet_06v0 ad=0.3608p pd=2.52u as=0.3608p ps=2.52u w=0.82u l=1u
X107 a_5936_25560# a_5524_25239# vssd1 vssd1 nfet_06v0 ad=0.1782p pd=1.69u as=0.1053p ps=0.925u w=0.405u l=0.6u
X108 vccd1 a_27564_14487# a_27476_14584# vccd1 pfet_06v0 ad=0.5368p pd=3.32u as=0.5368p ps=3.32u w=1.22u l=1u
X109 a_22636_14487# a_22548_14584# vssd1 vssd1 nfet_06v0 ad=0.3608p pd=2.52u as=0.3608p ps=2.52u w=0.82u l=1u
X110 a_9408_25940# a_2052_25940# vccd1 vccd1 pfet_06v0 ad=0.3782p pd=1.84u as=0.5368p ps=3.32u w=1.22u l=0.5u
X111 a_1692_18528# a_6440_18056# vssd1 vssd1 nfet_06v0 ad=0.1118p pd=0.95u as=0.1118p ps=0.95u w=0.43u l=0.6u
X112 a_22636_11351# a_22548_11448# vssd1 vssd1 nfet_06v0 ad=0.3608p pd=2.52u as=0.3608p ps=2.52u w=0.82u l=1u
X113 vccd1 a_27564_11351# a_27476_11448# vccd1 pfet_06v0 ad=0.5368p pd=3.32u as=0.5368p ps=3.32u w=1.22u l=1u
X114 a_11405_23544# a_2672_21782# vccd1 vccd1 pfet_06v0 ad=0.3852p pd=2.86u as=0.1116p ps=0.98u w=0.36u l=0.5u
X115 vccd1 a_27564_9783# a_27476_9880# vccd1 pfet_06v0 ad=0.5368p pd=3.32u as=0.5368p ps=3.32u w=1.22u l=1u
X116 vccd1 a_16364_11351# a_16276_11448# vccd1 pfet_06v0 ad=0.5368p pd=3.32u as=0.5368p ps=3.32u w=1.22u l=1u
X117 vccd1 a_1772_23544# SDAC[6] vccd1 pfet_06v0 ad=0.3782p pd=1.84u as=0.3782p ps=1.84u w=1.22u l=0.5u
X118 vccd1 a_27564_6647# a_27476_6744# vccd1 pfet_06v0 ad=0.5368p pd=3.32u as=0.5368p ps=3.32u w=1.22u l=1u
X119 vccd1 a_1772_20408# SDAC[5] vccd1 pfet_06v0 ad=0.3782p pd=1.84u as=0.3782p ps=1.84u w=1.22u l=0.5u
X120 a_1772_20408# a_3564_20408# vssd1 vssd1 nfet_06v0 ad=0.2132p pd=1.34u as=0.2132p ps=1.34u w=0.82u l=0.6u
X121 vccd1 a_22748_16488# a_22660_16532# vccd1 pfet_06v0 ad=0.5368p pd=3.32u as=0.5368p ps=3.32u w=1.22u l=1u
X122 a_2140_7080# a_2052_7124# vssd1 vssd1 nfet_06v0 ad=0.3608p pd=2.52u as=0.3608p ps=2.52u w=0.82u l=1u
X123 a_9076_15704# a_5019_20408# a_13780_18884# vssd1 nfet_06v0 ad=0.2132p pd=1.34u as=0.1312p ps=1.14u w=0.82u l=0.6u
X124 a_3619_17272# a_3949_17272# a_4069_17870# vccd1 pfet_06v0 ad=0.3456p pd=2.64u as=61.199993f ps=0.7u w=0.36u l=0.5u
X125 a_8524_5512# a_8436_5556# vssd1 vssd1 nfet_06v0 ad=0.3608p pd=2.52u as=0.3608p ps=2.52u w=0.82u l=1u
X126 vccd1 a_14348_5079# a_14260_5176# vccd1 pfet_06v0 ad=0.5368p pd=3.32u as=0.5368p ps=3.32u w=1.22u l=1u
X127 vccd1 a_28012_17623# a_27924_17720# vccd1 pfet_06v0 ad=0.5368p pd=3.32u as=0.5368p ps=3.32u w=1.22u l=1u
X128 a_3619_14136# a_3949_14136# a_4069_14734# vccd1 pfet_06v0 ad=0.3456p pd=2.64u as=61.199993f ps=0.7u w=0.36u l=0.5u
X129 vccd1 a_22636_8215# a_22548_8312# vccd1 pfet_06v0 ad=0.5368p pd=3.32u as=0.5368p ps=3.32u w=1.22u l=1u
X130 a_10372_24372# a_9900_24756# a_10224_24372# vccd1 pfet_06v0 ad=0.3172p pd=1.74u as=0.1464p ps=1.46u w=1.22u l=0.5u
X131 a_19357_23336# a_10732_24328# vssd1 vssd1 nfet_06v0 ad=0.333p pd=2.57u as=93.59999f ps=0.88u w=0.36u l=0.6u
D3 a_4481_24757# vccd1 diode_pd2nw_06v0 pj=1.86u area=0.2052p
X132 vccd1 a_6383_21028# a_6839_21006# vccd1 pfet_06v0 ad=0.379p pd=2.37u as=61.199993f ps=0.7u w=0.36u l=0.5u
X133 a_12880_13884# a_12732_13440# a_12712_13884# vssd1 nfet_06v0 ad=43.199997f pd=0.6u as=43.199997f ps=0.6u w=0.36u l=0.6u
X134 vccd1 a_20396_20759# a_20308_20856# vccd1 pfet_06v0 ad=0.5368p pd=3.32u as=0.5368p ps=3.32u w=1.22u l=1u
X135 a_2772_19756# a_1604_20152# a_2568_19756# vccd1 pfet_06v0 ad=0.2028p pd=1.3u as=0.2028p ps=1.3u w=0.78u l=0.5u
X136 a_8156_17584# a_9800_18056# vssd1 vssd1 nfet_06v0 ad=0.1118p pd=0.95u as=0.1892p ps=1.74u w=0.43u l=0.6u
X137 a_8636_7080# a_8548_7124# vssd1 vssd1 nfet_06v0 ad=0.3608p pd=2.52u as=0.3608p ps=2.52u w=0.82u l=1u
X138 a_4481_24757# a_10192_8692# vccd1 vccd1 pfet_06v0 ad=0.4392p pd=1.94u as=0.367p ps=1.92u w=1.22u l=0.5u
X139 vccd1 a_21404_10216# a_21316_10260# vccd1 pfet_06v0 ad=0.5368p pd=3.32u as=0.5368p ps=3.32u w=1.22u l=1u
X140 a_13126_12404# a_12650_11828# a_12854_11828# vssd1 nfet_06v0 ad=43.199997f pd=0.6u as=0.369p ps=2.77u w=0.36u l=0.6u
X141 a_8132_24372# a_2444_24328# a_7984_24372# vccd1 pfet_06v0 ad=0.3172p pd=1.74u as=0.1464p ps=1.46u w=1.22u l=0.5u
X142 vccd1 a_9900_24756# a_9812_24856# vccd1 pfet_06v0 ad=0.3172p pd=1.74u as=0.5368p ps=3.32u w=1.22u l=0.5u
X143 a_4752_15704# a_5020_15796# vccd1 vccd1 pfet_06v0 ad=0.2486p pd=2.01u as=0.35315p ps=1.96u w=0.565u l=0.5u
X144 COMP_CLK a_2444_26249# vssd1 vssd1 nfet_06v0 ad=0.2132p pd=1.34u as=0.2132p ps=1.34u w=0.82u l=0.6u
X145 a_26220_23895# a_26132_23992# vssd1 vssd1 nfet_06v0 ad=0.3608p pd=2.52u as=0.3608p ps=2.52u w=0.82u l=1u
X146 a_2116_14584# a_1996_11000# a_1872_14602# vccd1 pfet_06v0 ad=0.3172p pd=1.74u as=0.4248p ps=1.94u w=1.22u l=0.5u
X147 a_7605_13396# a_7485_13928# a_6861_13861# vccd1 pfet_06v0 ad=61.199993f pd=0.7u as=0.3852p ps=2.86u w=0.36u l=0.5u
X148 a_10111_17775# a_9211_17272# vssd1 vssd1 nfet_06v0 ad=94.5f pd=0.885u as=0.1224p ps=1.04u w=0.36u l=0.6u
X149 a_18268_3944# a_18180_3988# vssd1 vssd1 nfet_06v0 ad=0.3608p pd=2.52u as=0.3608p ps=2.52u w=0.82u l=1u
X150 a_2116_11448# a_1996_11000# a_1872_11466# vccd1 pfet_06v0 ad=0.3172p pd=1.74u as=0.4248p ps=1.94u w=1.22u l=0.5u
X151 vccd1 a_13564_3944# a_13476_3988# vccd1 pfet_06v0 ad=0.5368p pd=3.32u as=0.5368p ps=3.32u w=1.22u l=1u
X152 a_15244_8648# a_15156_8692# vssd1 vssd1 nfet_06v0 ad=0.3608p pd=2.52u as=0.3608p ps=2.52u w=0.82u l=1u
X153 a_12502_12404# a_12026_11828# vssd1 vssd1 nfet_06v0 ad=43.199997f pd=0.6u as=93.59999f ps=0.88u w=0.36u l=0.6u
X154 a_13999_22596# a_13375_22020# a_13831_22596# vccd1 pfet_06v0 ad=0.3852p pd=2.86u as=61.199993f ps=0.7u w=0.36u l=0.5u
X155 a_7167_13188# a_6543_12612# a_6999_13188# vccd1 pfet_06v0 ad=0.3852p pd=2.86u as=61.199993f ps=0.7u w=0.36u l=0.5u
X156 vccd1 a_22412_23895# a_22324_23992# vccd1 pfet_06v0 ad=0.5368p pd=3.32u as=0.5368p ps=3.32u w=1.22u l=1u
D4 a_5940_6390# vccd1 diode_pd2nw_06v0 pj=1.86u area=0.2052p
X157 a_2856_23292# a_2016_22875# a_2568_22892# vssd1 nfet_06v0 ad=43.199997f pd=0.6u as=93.59999f ps=0.88u w=0.36u l=0.6u
D5 vssd1 a_2220_24686# diode_nd2ps_06v0 pj=1.86u area=0.2052p
X158 a_17932_9783# a_17844_9880# vssd1 vssd1 nfet_06v0 ad=0.3608p pd=2.52u as=0.3608p ps=2.52u w=0.82u l=1u
X159 a_25100_25463# a_25012_25560# vssd1 vssd1 nfet_06v0 ad=0.3608p pd=2.52u as=0.3608p ps=2.52u w=0.82u l=1u
X160 a_17632_21976# a_16388_22424# vssd1 vssd1 nfet_06v0 ad=0.1584p pd=1.6u as=0.2344p ps=1.56u w=0.36u l=0.6u
X161 a_5836_22760# a_14649_21584# vssd1 vssd1 nfet_06v0 ad=0.2119p pd=1.335u as=0.2119p ps=1.335u w=0.815u l=0.6u
X162 a_2856_20156# a_2016_19739# a_2568_19756# vssd1 nfet_06v0 ad=43.199997f pd=0.6u as=93.59999f ps=0.88u w=0.36u l=0.6u
X163 vssd1 a_15848_20128# a_3564_20408# vssd1 nfet_06v0 ad=0.153p pd=1.195u as=0.2178p ps=1.87u w=0.495u l=0.6u
X164 vccd1 a_20396_11351# a_20308_11448# vccd1 pfet_06v0 ad=0.5368p pd=3.32u as=0.5368p ps=3.32u w=1.22u l=1u
X165 a_14840_20540# a_14000_20856# a_14552_20856# vssd1 nfet_06v0 ad=43.199997f pd=0.6u as=93.59999f ps=0.88u w=0.36u l=0.6u
X166 vccd1 a_6531_13789# a_6239_12568# vccd1 pfet_06v0 ad=0.379p pd=2.37u as=0.5368p ps=3.32u w=1.22u l=0.5u
X167 a_27317_24372# a_27197_24904# a_26573_24837# vccd1 pfet_06v0 ad=61.199993f pd=0.7u as=0.3852p ps=2.86u w=0.36u l=0.5u
X168 vssd1 a_1772_9432# SDAC[2] vssd1 nfet_06v0 ad=0.2132p pd=1.34u as=0.2132p ps=1.34u w=0.82u l=0.6u
X169 a_2364_15052# a_2264_15008# vssd1 vssd1 nfet_06v0 ad=93.59999f pd=0.88u as=0.1584p ps=1.6u w=0.36u l=0.6u
X170 a_14089_13744# a_13672_13884# a_14465_13884# vssd1 nfet_06v0 ad=0.176p pd=1.68u as=0.134p ps=1.1u w=0.4u l=0.6u
X171 a_2364_19756# a_1792_16532# vccd1 vccd1 pfet_06v0 ad=0.2028p pd=1.3u as=0.3432p ps=2.44u w=0.78u l=0.5u
X172 a_27900_13352# a_27812_13396# vssd1 vssd1 nfet_06v0 ad=0.3608p pd=2.52u as=0.3608p ps=2.52u w=0.82u l=1u
X173 a_6266_10260# a_5642_10260# a_6118_10836# vssd1 nfet_06v0 ad=0.369p pd=2.77u as=43.199997f ps=0.6u w=0.36u l=0.6u
X174 vssd1 a_8736_19363# a_9476_17016# vssd1 nfet_06v0 ad=0.2132p pd=1.34u as=0.3608p ps=2.52u w=0.82u l=0.6u
X175 vccd1 a_9980_3944# a_9892_3988# vccd1 pfet_06v0 ad=0.5368p pd=3.32u as=0.5368p ps=3.32u w=1.22u l=1u
X176 vccd1 a_21404_7080# a_21316_7124# vccd1 pfet_06v0 ad=0.5368p pd=3.32u as=0.5368p ps=3.32u w=1.22u l=1u
X177 vccd1 a_17820_10216# a_17732_10260# vccd1 pfet_06v0 ad=0.5368p pd=3.32u as=0.5368p ps=3.32u w=1.22u l=1u
X178 a_27900_10216# a_27812_10260# vssd1 vssd1 nfet_06v0 ad=0.3608p pd=2.52u as=0.3608p ps=2.52u w=0.82u l=1u
X179 vssd1 a_13686_12404# a_14162_12403# vssd1 nfet_06v0 ad=0.282625p pd=1.87u as=43.8f ps=0.605u w=0.365u l=0.6u
X180 EOC a_25648_25560# vccd1 vccd1 pfet_06v0 ad=0.3782p pd=1.84u as=0.3782p ps=1.84u w=1.22u l=0.5u
X181 vccd1 a_4481_24757# a_4041_24812# vccd1 pfet_06v0 ad=0.4149p pd=2.65u as=0.1521p ps=1.105u w=0.585u l=0.5u
X182 vccd1 a_26243_24765# a_22604_21976# vccd1 pfet_06v0 ad=0.379p pd=2.37u as=0.5368p ps=3.32u w=1.22u l=0.5u
X183 vccd1 a_4403_21582# a_4315_21237# vccd1 pfet_06v0 ad=0.5346p pd=3.31u as=0.6561p ps=3.51u w=1.215u l=0.5u
X184 vssd1 a_4236_26254# a_2444_26249# vssd1 nfet_06v0 ad=0.3608p pd=2.52u as=0.2132p ps=1.34u w=0.82u l=0.6u
X185 a_12375_14964# a_11919_14964# vccd1 vccd1 pfet_06v0 ad=61.199993f pd=0.7u as=0.1116p ps=0.98u w=0.36u l=0.5u
X186 vccd1 a_23868_22327# a_23780_22424# vccd1 pfet_06v0 ad=0.5368p pd=3.32u as=0.5368p ps=3.32u w=1.22u l=1u
X187 vccd1 a_6172_3944# a_6084_3988# vccd1 pfet_06v0 ad=0.5368p pd=3.32u as=0.5368p ps=3.32u w=1.22u l=1u
X188 a_19164_19191# a_19076_19288# vssd1 vssd1 nfet_06v0 ad=0.3608p pd=2.52u as=0.3608p ps=2.52u w=0.82u l=1u
X189 a_1772_9432# a_3564_9432# vccd1 vccd1 pfet_06v0 ad=0.3782p pd=1.84u as=0.3782p ps=1.84u w=1.22u l=0.5u
X190 a_8232_11390# a_7639_11459# a_8968_11132# vssd1 nfet_06v0 ad=93.59999f pd=0.88u as=43.199997f ps=0.6u w=0.36u l=0.6u
X191 a_9408_25940# a_2052_25940# vccd1 vccd1 pfet_06v0 ad=0.3782p pd=1.84u as=0.3782p ps=1.84u w=1.22u l=0.5u
X192 vccd1 a_12332_5079# a_12244_5176# vccd1 pfet_06v0 ad=0.5368p pd=3.32u as=0.5368p ps=3.32u w=1.22u l=1u
X193 a_1772_6296# a_3564_6296# vccd1 vccd1 pfet_06v0 ad=0.3782p pd=1.84u as=0.3782p ps=1.84u w=1.22u l=0.5u
X194 vccd1 a_20620_8215# a_20532_8312# vccd1 pfet_06v0 ad=0.5368p pd=3.32u as=0.5368p ps=3.32u w=1.22u l=1u
X195 a_3999_21676# a_4233_23152# vssd1 vssd1 nfet_06v0 ad=0.3586p pd=2.51u as=0.3586p ps=2.51u w=0.815u l=0.6u
X196 vccd1 a_1772_23544# SDAC[6] vccd1 pfet_06v0 ad=0.3782p pd=1.84u as=0.3782p ps=1.84u w=1.22u l=0.5u
X197 a_12337_12700# a_3072_10564# vssd1 vssd1 nfet_06v0 ad=0.134p pd=1.1u as=0.1224p ps=1.04u w=0.36u l=0.6u
X198 a_15692_5079# a_15604_5176# vssd1 vssd1 nfet_06v0 ad=0.3608p pd=2.52u as=0.3608p ps=2.52u w=0.82u l=1u
X199 a_1772_3160# a_3564_3160# vccd1 vccd1 pfet_06v0 ad=0.3782p pd=1.84u as=0.3782p ps=1.84u w=1.22u l=0.5u
X200 a_22748_8648# a_22660_8692# vssd1 vssd1 nfet_06v0 ad=0.3608p pd=2.52u as=0.3608p ps=2.52u w=0.82u l=1u
X201 DIGITAL_OUT[4] a_21392_25940# vssd1 vssd1 nfet_06v0 ad=0.2132p pd=1.34u as=0.2132p ps=1.34u w=0.82u l=0.6u
X202 a_12581_14136# a_8435_13397# a_13364_12612# vssd1 nfet_06v0 ad=0.2132p pd=1.34u as=0.3608p ps=2.52u w=0.82u l=0.6u
X203 vccd1 a_1772_20408# SDAC[5] vccd1 pfet_06v0 ad=0.3782p pd=1.84u as=0.3782p ps=1.84u w=1.22u l=0.5u
D6 vssd1 a_2140_17302# diode_nd2ps_06v0 pj=1.86u area=0.2052p
X204 a_2444_24328# a_5836_22760# vccd1 vccd1 pfet_06v0 ad=0.2561p pd=1.505u as=0.30535p ps=1.605u w=0.985u l=0.5u
D7 vssd1 a_3072_10564# diode_nd2ps_06v0 pj=1.86u area=0.2052p
X205 a_1692_17302# a_10900_14964# vccd1 vccd1 pfet_06v0 ad=0.3782p pd=1.84u as=0.4941p ps=2.03u w=1.22u l=0.5u
X206 a_10903_10216# a_11559_10304# a_11455_10348# vccd1 pfet_06v0 ad=0.25375p pd=1.51u as=0.1313p ps=1.025u w=0.505u l=0.5u
X207 a_21616_25560# a_21204_25239# vssd1 vssd1 nfet_06v0 ad=0.1782p pd=1.69u as=0.1053p ps=0.925u w=0.405u l=0.6u
X208 a_7988_19668# a_7540_20199# vssd1 vssd1 nfet_06v0 ad=0.2178p pd=1.87u as=0.153p ps=1.195u w=0.495u l=0.6u
X209 a_6328_17342# a_8156_17584# vssd1 vssd1 nfet_06v0 ad=0.1053p pd=0.925u as=0.1053p ps=0.925u w=0.405u l=0.6u
X210 vccd1 a_18828_5079# a_18740_5176# vccd1 pfet_06v0 ad=0.5368p pd=3.32u as=0.5368p ps=3.32u w=1.22u l=1u
X211 a_10764_6647# a_10676_6744# vssd1 vssd1 nfet_06v0 ad=0.3608p pd=2.52u as=0.3608p ps=2.52u w=0.82u l=1u
X212 a_12533_9476# a_12413_9432# a_11789_9432# vssd1 nfet_06v0 ad=43.199997f pd=0.6u as=0.369p ps=2.77u w=0.36u l=0.6u
X213 a_4573_11000# a_1872_11466# vccd1 vccd1 pfet_06v0 ad=0.3852p pd=2.86u as=0.1116p ps=0.98u w=0.36u l=0.5u
X214 a_16388_25940# a_15940_26471# vssd1 vssd1 nfet_06v0 ad=0.2178p pd=1.87u as=0.153p ps=1.195u w=0.495u l=0.6u
X215 a_17221_20453# a_16217_20496# vccd1 vccd1 pfet_06v0 ad=0.5346p pd=3.31u as=0.5346p ps=3.31u w=1.215u l=0.5u
X216 a_16252_3944# a_16164_3988# vssd1 vssd1 nfet_06v0 ad=0.3608p pd=2.52u as=0.3608p ps=2.52u w=0.82u l=1u
X217 vssd1 a_11628_18056# a_13776_18100# vssd1 nfet_06v0 ad=0.1053p pd=0.925u as=0.1053p ps=0.925u w=0.405u l=0.6u
X218 a_14188_18884# a_5019_20408# a_9076_15704# vssd1 nfet_06v0 ad=0.1312p pd=1.14u as=0.2132p ps=1.34u w=0.82u l=0.6u
X219 vssd1 a_1804_21723# a_4516_9521# vssd1 nfet_06v0 ad=0.153p pd=1.195u as=0.1584p ps=1.6u w=0.36u l=0.6u
X220 a_4569_12176# a_4152_12316# a_4945_12316# vssd1 nfet_06v0 ad=0.176p pd=1.68u as=0.134p ps=1.1u w=0.4u l=0.6u
X221 vccd1 a_21852_10216# a_21764_10260# vccd1 pfet_06v0 ad=0.5368p pd=3.32u as=0.5368p ps=3.32u w=1.22u l=1u
X222 vccd1 a_26108_14920# a_26020_14964# vccd1 pfet_06v0 ad=0.5368p pd=3.32u as=0.5368p ps=3.32u w=1.22u l=1u
X223 vccd1 a_1692_18528# a_1604_20152# vccd1 pfet_06v0 ad=0.2249p pd=1.385u as=0.3806p ps=2.61u w=0.865u l=0.5u
X224 a_11324_5512# a_11236_5556# vssd1 vssd1 nfet_06v0 ad=0.3608p pd=2.52u as=0.3608p ps=2.52u w=0.82u l=1u
X225 a_6971_9176# a_3479_18840# a_1772_14136# vssd1 nfet_06v0 ad=0.1312p pd=1.14u as=0.3608p ps=2.52u w=0.82u l=0.6u
X226 vccd1 a_26108_11784# a_26020_11828# vccd1 pfet_06v0 ad=0.5368p pd=3.32u as=0.5368p ps=3.32u w=1.22u l=1u
X227 vccd1 a_4681_16880# a_4576_17020# vccd1 pfet_06v0 ad=0.29465p pd=1.74u as=0.1313p ps=1.025u w=0.505u l=0.5u
X228 a_12628_13484# a_11460_13880# a_12424_13484# vccd1 pfet_06v0 ad=0.2028p pd=1.3u as=0.2028p ps=1.3u w=0.78u l=0.5u
X229 vccd1 a_17024_25940# DIGITAL_OUT[2] vccd1 pfet_06v0 ad=0.5368p pd=3.32u as=0.3782p ps=1.84u w=1.22u l=0.5u
X230 a_22771_24765# a_23101_24837# a_23221_24947# vssd1 nfet_06v0 ad=0.3705p pd=2.77u as=43.8f ps=0.605u w=0.365u l=0.6u
X231 vccd1 a_5836_22760# a_9956_21236# vccd1 pfet_06v0 ad=0.5368p pd=3.32u as=0.3172p ps=1.74u w=1.22u l=0.5u
X232 a_14649_21584# a_14232_21724# a_15025_21724# vssd1 nfet_06v0 ad=0.3586p pd=2.51u as=0.217p ps=1.515u w=0.815u l=0.6u
X233 a_14860_20807# a_14552_20856# vccd1 vccd1 pfet_06v0 ad=0.2424p pd=1.465u as=0.2222p ps=1.89u w=0.505u l=0.5u
D8 a_4481_24757# vccd1 diode_pd2nw_06v0 pj=1.86u area=0.2052p
X234 vccd1 a_22860_23895# a_22772_23992# vccd1 pfet_06v0 ad=0.5368p pd=3.32u as=0.5368p ps=3.32u w=1.22u l=1u
X235 a_5972_17720# a_5524_17361# vssd1 vssd1 nfet_06v0 ad=0.2178p pd=1.87u as=0.153p ps=1.195u w=0.495u l=0.6u
X236 vccd1 a_17036_8215# a_16948_8312# vccd1 pfet_06v0 ad=0.5368p pd=3.32u as=0.5368p ps=3.32u w=1.22u l=1u
D9 vssd1 a_3072_10564# diode_nd2ps_06v0 pj=1.86u area=0.2052p
X237 a_19276_14487# a_19188_14584# vssd1 vssd1 nfet_06v0 ad=0.3608p pd=2.52u as=0.3608p ps=2.52u w=0.82u l=1u
X238 vccd1 a_20508_3944# a_20420_3988# vccd1 pfet_06v0 ad=0.5368p pd=3.32u as=0.5368p ps=3.32u w=1.22u l=1u
X239 vssd1 a_15849_22804# a_16192_25244# vssd1 nfet_06v0 ad=0.1584p pd=1.6u as=93.59999f ps=0.88u w=0.36u l=0.6u
X240 vssd1 CLK a_13496_17337# vssd1 nfet_06v0 ad=0.1053p pd=0.925u as=0.1053p ps=0.925u w=0.405u l=0.6u
X241 vccd1 a_4481_24757# a_11787_20027# vccd1 pfet_06v0 ad=0.33755p pd=1.955u as=0.3159p ps=1.735u w=1.215u l=0.5u
X242 a_4128_15452# a_2016_15035# a_3816_15452# vccd1 pfet_06v0 ad=0.1313p pd=1.025u as=0.25375p ps=1.51u w=0.505u l=0.5u
X243 a_6235_26516# a_5759_25940# vssd1 vssd1 nfet_06v0 ad=43.199997f pd=0.6u as=93.59999f ps=0.88u w=0.36u l=0.6u
X244 vccd1 a_26780_3511# a_26692_3608# vccd1 pfet_06v0 ad=0.5368p pd=3.32u as=0.5368p ps=3.32u w=1.22u l=1u
X245 a_10204_3511# a_10116_3608# vssd1 vssd1 nfet_06v0 ad=0.3608p pd=2.52u as=0.3608p ps=2.52u w=0.82u l=1u
X246 a_13686_12404# a_12854_11828# a_13538_11828# vccd1 pfet_06v0 ad=0.3852p pd=2.86u as=61.199993f ps=0.7u w=0.36u l=0.5u
X247 a_7932_20453# a_3703_18840# a_8433_20152# vssd1 nfet_06v0 ad=0.2119p pd=1.335u as=0.1304p ps=1.135u w=0.815u l=0.6u
X248 a_9659_9176# a_8121_13016# a_7852_9006# vssd1 nfet_06v0 ad=0.1312p pd=1.14u as=0.3608p ps=2.52u w=0.82u l=0.6u
X249 a_27004_21192# a_26916_21236# vssd1 vssd1 nfet_06v0 ad=0.3608p pd=2.52u as=0.3608p ps=2.52u w=0.82u l=1u
X250 vccd1 a_21292_17623# a_21204_17720# vccd1 pfet_06v0 ad=0.5368p pd=3.32u as=0.5368p ps=3.32u w=1.22u l=1u
X251 a_10452_18840# a_16744_22042# vccd1 vccd1 pfet_06v0 ad=0.3782p pd=1.84u as=0.5368p ps=3.32u w=1.22u l=0.5u
X252 vccd1 a_7224_23934# a_7032_24047# vccd1 pfet_06v0 ad=0.2222p pd=1.89u as=0.2424p ps=1.465u w=0.505u l=0.5u
X253 vccd1 a_14232_21724# a_14649_21584# vccd1 pfet_06v0 ad=0.5346p pd=3.31u as=0.3159p ps=1.735u w=1.215u l=0.5u
D10 vssd1 a_1804_21723# diode_nd2ps_06v0 pj=1.86u area=0.2052p
X254 vccd1 a_27004_8648# a_26916_8692# vccd1 pfet_06v0 ad=0.5368p pd=3.32u as=0.5368p ps=3.32u w=1.22u l=1u
X255 vssd1 a_15064_25502# a_14872_25615# vssd1 nfet_06v0 ad=0.2016p pd=1.48u as=0.2007p ps=1.475u w=0.36u l=0.6u
X256 vccd1 a_11628_18056# a_13776_18100# vccd1 pfet_06v0 ad=0.367p pd=1.92u as=0.2952p ps=1.54u w=0.82u l=0.5u
X257 vccd1 a_19612_7080# a_19524_7124# vccd1 pfet_06v0 ad=0.5368p pd=3.32u as=0.5368p ps=3.32u w=1.22u l=1u
X258 a_1772_9432# a_3564_9432# vssd1 vssd1 nfet_06v0 ad=0.2132p pd=1.34u as=0.2132p ps=1.34u w=0.82u l=0.6u
X259 SDAC[4] a_1772_15704# vssd1 vssd1 nfet_06v0 ad=0.2132p pd=1.34u as=0.3608p ps=2.52u w=0.82u l=0.6u
X260 vccd1 a_27004_5512# a_26916_5556# vccd1 pfet_06v0 ad=0.5368p pd=3.32u as=0.5368p ps=3.32u w=1.22u l=1u